FoamFile
{
    version     2.0;
    format      ascii;
    class       dictionary;
    object      blockMeshDict;
}




vertices
(
    ( 0.00380887786845427 0.06717749515754935 0.03976470588235295 )
    ( -0.00386823908489304 0.08085244056770305 0.03976470588235295 )
    ( -0.00386823908489304 -0.06718359788573081 0.03976470588235295 )
    ( 0.00380887786845427 -0.08085854329588450 0.03976470588235295 )
    ( 0.00736228754240689 0.03249351813929816 0.00000000000000000 )
    ( -0.00741120908521995 0.04171526212405294 0.00000000000000000 )
    ( -0.00741120908521995 -0.03252109934227083 0.00000000000000000 )
    ( 0.00736228754240689 -0.04174284332702562 0.00000000000000000 )
);

edges
(
arc 6 7 ( 0.00021253659431827 -0.03714152335038610 0.00000000000000000 )
arc 4 5 ( 0.00021253659431827 0.03709483811593767 0.00000000000000000 )
arc 2 3 ( 0.00017428691346861 -0.07411809039258599 0.03976470588235295 )
arc 0 1 ( 0.00017428691346861 0.07391794806084787 0.03976470588235295 )
);

boundary
(
        inlet
        {
            type outletInlet;
            faces
            (
                   ( 0 3 4 7 )
            );
         }

        outlet
        {
            type outletInlet;
            faces
            (
                   ( 1 2 5 6 )
            );
         }

        casing
        {
            type wall;
            faces
            (
                   ( 0 1 2 3 )
                   ( 4 5 6 7 )
            );
         }

        cyclic1
        {
            type              wall;
            faces
            (
                   ( 0 1 4 5 )
            );
         }

        cyclic2
        {
            type              wall;
            faces
            (
                   ( 2 3 6 7 )
            );
         }

);

blocks
(
hex ( 0 1 2 3 4 5 6 7 ) boundary 
( 40 40 20 )
simpleGrading
(
   1
   (
       ( 0.3   0.2   0.2 )
       ( 0.4   0.6   1.0 )
       ( 0.3   0.2   5.0 )
   )
   1
)
);

