FoamFile
{
    version     2.0;
    format      ascii;
    class       dictionary;
    object      blockMeshDict;
}




vertices
(
    ( -0.00870616160983734 0.01650511919400436 0.03580236994901418 )
    ( 0.00869251570910450 0.00980127524000486 0.03580236994901418 )
    ( 0.00869251570910450 -0.01652826315999513 0.03580236994901418 )
    ( -0.00870616160983734 -0.00982441920599564 0.03580236994901418 )
    ( -0.00721326581659787 0.01296185909449152 0.00000000000000000 )
    ( 0.00718941765438845 0.00263518905259728 0.00000000000000000 )
    ( 0.00718941765438845 -0.01298230532031664 0.00000000000000000 )
    ( -0.00721326581659787 -0.00265563527842240 0.00000000000000000 )
);

edges
(
arc 6 7 ( 0.00097873724731842 -0.00705003016133009 0.00000000000000000 )
arc 4 5 ( 0.00097873724731842 0.00856746421158383 0.00000000000000000 )
arc 2 3 ( 0.00073305033382791 -0.01212702269861536 0.03580236994901418 )
arc 0 1 ( 0.00073305033382791 0.01420251570138464 0.03580236994901418 )
);

boundary
(
        inlet
        {
            type outletInlet;
            faces
            (
                   ( 0 3 4 7 )
            );
         }

        outlet
        {
            type outletInlet;
            faces
            (
                   ( 1 2 5 6 )
            );
         }

        casing
        {
            type wall;
            faces
            (
                   ( 0 1 2 3 )
                   ( 4 5 6 7 )
            );
         }

        cyclic1
        {
            type              wall;
            faces
            (
                   ( 0 1 4 5 )
            );
         }

        cyclic2
        {
            type              wall;
            faces
            (
                   ( 2 3 6 7 )
            );
         }

);

blocks
(
hex ( 0 1 2 3 4 5 6 7 ) boundary 
( 4 4 1 )
simpleGrading ( 4 4 4 )
);

