FoamFile
{
    version     2.0;
    format      ascii;
    class       dictionary;
    object      blockMeshDict;
}




vertices
(
    ( -0.00871694265246092 0.01648700314351360 0.08799999999999999 )
    ( 0.00870369944393745 0.00981984445396736 0.08799999999999999 )
    ( 0.00870369944393745 -0.01650969394603264 0.08799999999999999 )
    ( -0.00871694265246092 -0.00984253525648640 0.08799999999999999 )
    ( -0.00722859452635779 0.01294800528764163 0.05219763005098581 )
    ( 0.00720527156220308 0.00264933045629668 0.05219763005098581 )
    ( 0.00720527156220308 -0.01296816391661723 0.05219763005098581 )
    ( -0.00722859452635779 -0.00266948908527229 0.05219763005098581 )
);

edges
(
arc 6 7 ( 0.00097198901859706 -0.00704819639131776 0.05219763005098581 )
arc 4 5 ( 0.00097198901859706 0.00856929798159616 0.05219763005098581 )
arc 2 3 ( 0.00072530543094165 -0.01212655187228516 0.08799999999999999 )
arc 0 1 ( 0.00072530543094165 0.01420298652771484 0.08799999999999999 )
);

boundary
(
        inlet
        {
            type outletInlet;
            faces
            (
                   ( 0 3 4 7 )
            );
         }

        outlet
        {
            type outletInlet;
            faces
            (
                   ( 1 2 5 6 )
            );
         }

        casing
        {
            type wall;
            faces
            (
                   ( 0 1 2 3 )
                   ( 4 5 6 7 )
            );
         }

        cyclic1
        {
            type              wall;
            faces
            (
                   ( 0 1 4 5 )
            );
         }

        cyclic2
        {
            type              wall;
            faces
            (
                   ( 2 3 6 7 )
            );
         }

);

blocks
(
hex ( 0 1 2 3 4 5 6 7 ) boundary 
( 40 40 40 )
simpleGrading ( 2 2 1 )
);

