FoamFile
{
    version     2.0;
    format      ascii;
    class       dictionary;
    object      blockMeshDict;
}




vertices
(
    ( -0.00136602141040003 0.01643268488144111 0.02996687555205025 )
    ( 0.00137055427132317 0.00156419364358201 0.02996687555205025 )
    ( 0.00137055427132317 -0.01640517273568289 0.02996687555205025 )
    ( -0.00136602141040003 -0.00153668149782379 0.02996687555205025 )
    ( -0.00212606995697530 0.01295072135162565 0.00000000000000000 )
    ( 0.00213824336309987 -0.00168308282334520 0.00000000000000000 )
    ( 0.00213824336309987 -0.01292137712715227 0.00000000000000000 )
    ( -0.00212606995697530 0.00171242704781859 0.00000000000000000 )
);

edges
(
arc 6 7 ( 0.00036011685664173 -0.00580632097264779 0.00000000000000000 )
arc 4 5 ( 0.00036011685664173 0.00543197333115928 0.00000000000000000 )
arc 2 3 ( 0.00043880537101854 -0.00918620784906838 0.02996687555205025 )
arc 0 1 ( 0.00043880537101854 0.00878315853019652 0.02996687555205025 )
);

boundary
(
        inlet
        {
            type outletInlet;
            faces
            (
                   ( 0 3 4 7 )
            );
         }

        outlet
        {
            type outletInlet;
            faces
            (
                   ( 1 2 5 6 )
            );
         }

        casing
        {
            type wall;
            faces
            (
                   ( 0 1 2 3 )
                   ( 4 5 6 7 )
            );
         }

        cyclic1
        {
            type              wall;
            faces
            (
                   ( 0 1 4 5 )
            );
         }

        cyclic2
        {
            type              wall;
            faces
            (
                   ( 2 3 6 7 )
            );
         }

);

blocks
(
hex ( 0 1 2 3 4 5 6 7 ) boundary 
( 40 40 20 )
simpleGrading
(
   1
   (
       ( 0.3   0.2   0.2 )
       ( 0.4   0.6   1.0 )
       ( 0.3   0.2   5.0 )
   )
   1
)
);

