FoamFile
{
   version     2.0;
   format      ascii;
   class       dictionary;
   object      controlDict;
}


application        icoFoam;

startFrom          startTime;

startTime          0.0;

stopAt             endTime;

endTime            10.0;

writeControl       timeStep;

writeInterval      10.0;

deltaT             10.0;

purgeWrite         1;

writeFormat        ascii;

writePrecision     6.0;

writeCompression   off;

timeFormat         general;

writeCompression   off;

timeFormat         general;

timePrecision      6;

runTimeModifiable  true;


