FoamFile
{
    version     2.0;
    format      ascii;
    class       dictionary;
    object      blockMeshDict;
}




vertices
(
    ( -0.00849254343181375 0.02582341811840059 0.03737456210789526 )
    ( 0.00847245703634526 0.01765206226417388 0.03737456210789526 )
    ( 0.00847245703634526 -0.02584691288967228 0.03737456210789526 )
    ( -0.00849254343181375 -0.01767555703544557 0.03737456210789526 )
    ( -0.00655953070724206 0.01866939257325327 0.00000000000000000 )
    ( 0.00653368811117907 0.00675072200934080 0.00000000000000000 )
    ( 0.00653368811117907 -0.01868430704986963 0.00000000000000000 )
    ( -0.00655953070724206 -0.00676563648595715 0.00000000000000000 )
);

edges
(
arc 6 7 ( 0.00077935075831674 -0.01226432625911094 0.00000000000000000 )
arc 4 5 ( 0.00077935075831674 0.01317070280009949 0.00000000000000000 )
arc 2 3 ( 0.00067522262514154 -0.02099377865660420 0.03737456210789526 )
arc 0 1 ( 0.00067522262514154 0.02250519649724196 0.03737456210789526 )
);

boundary
(
        inlet
        {
            type outletInlet;
            faces
            (
                   ( 0 3 4 7 )
            );
         }

        outlet
        {
            type outletInlet;
            faces
            (
                   ( 1 2 5 6 )
            );
         }

        casing
        {
            type wall;
            faces
            (
                   ( 0 1 2 3 )
                   ( 4 5 6 7 )
            );
         }

        cyclic1
        {
            type              wall;
            faces
            (
                   ( 0 1 4 5 )
            );
         }

        cyclic2
        {
            type              wall;
            faces
            (
                   ( 2 3 6 7 )
            );
         }

);

blocks
(
hex ( 0 1 2 3 4 5 6 7 ) boundary 
( 40 40 20 )
simpleGrading
(
   1
   (
       ( 0.3   0.2   0.2 )
       ( 0.4   0.6   1.0 )
       ( 0.3   0.2   5.0 )
   )
   1
)
);

