FoamFile
{
    version     2.0;
    format      ascii;
    class       dictionary;
    object      blockMeshDict;
}




vertices
(
    ( -0.00153503310096886 0.01482568916552155 0.02955311744945222 )
    ( 0.00154024967400605 -0.00000015235493249 0.02955311744945222 )
    ( 0.00154024967400605 -0.01479796875047786 0.02955311744945222 )
    ( -0.00153503310096886 0.00002787276997617 0.02955311744945222 )
    ( -0.00258557146671423 0.01190085551199332 0.00000000000000000 )
    ( 0.00260130155862017 -0.00253878553728680 0.00000000000000000 )
    ( 0.00260130155862017 -0.01187008185866990 0.00000000000000000 )
    ( -0.00258557146671423 0.00256955919061022 0.00000000000000000 )
);

edges
(
arc 6 7 ( 0.00032027464930705 -0.00484823438884887 0.00000000000000000 )
arc 4 5 ( 0.00032027464930705 0.00448306193253422 0.00000000000000000 )
arc 2 3 ( 0.00043113822389615 -0.00759525271318232 0.02955311744945222 )
arc 0 1 ( 0.00043113822389615 0.00720256368236305 0.02955311744945222 )
);

boundary
(
        inlet
        {
            type outletInlet;
            faces
            (
                   ( 0 3 4 7 )
            );
         }

        outlet
        {
            type outletInlet;
            faces
            (
                   ( 1 2 5 6 )
            );
         }

        casing
        {
            type wall;
            faces
            (
                   ( 0 1 2 3 )
                   ( 4 5 6 7 )
            );
         }

        cyclic1
        {
            type              wall;
            faces
            (
                   ( 0 1 4 5 )
            );
         }

        cyclic2
        {
            type              wall;
            faces
            (
                   ( 2 3 6 7 )
            );
         }

);

blocks
(
hex ( 0 1 2 3 4 5 6 7 ) boundary 
( 40 40 20 )
simpleGrading
(
   1
   (
       ( 0.3   0.2   0.2 )
       ( 0.4   0.6   1.0 )
       ( 0.3   0.2   5.0 )
   )
   1
)
);

