FoamFile
{
    version     2.0;
    format      ascii;
    class       dictionary;
    object      blockMeshDict;
}




vertices
(
    ( 0.00000000034868261 -0.00000000368407336 0.03412404311241626 )
    ( -0.00000000035235479 -0.00000000055854933 0.03412404311241626 )
    ( -0.00000000035235479 0.00000000367791733 0.03412404311241626 )
    ( 0.00000000034868261 0.00000000055239330 0.03412404311241626 )
    ( 0.00000000085965535 -0.00000000269015059 0.00000000000000000 )
    ( -0.00000000086532854 0.00000000016672925 0.00000000000000000 )
    ( -0.00000000086532854 0.00000000268217959 0.00000000000000000 )
    ( 0.00000000085965535 -0.00000000017470025 0.00000000000000000 )
);

edges
(
arc 6 7 ( -0.00000000003844692 0.00000000129951867 0.00000000000000000 )
arc 4 5 ( -0.00000000003844692 -0.00000000121593167 0.00000000000000000 )
arc 2 3 ( -0.00000000006682289 0.00000000216163861 0.03412404311241626 )
arc 0 1 ( -0.00000000006682289 -0.00000000207482805 0.03412404311241626 )
);

boundary
(
        inlet
        {
            type outletInlet;
            faces
            (
                   ( 0 3 4 7 )
            );
         }

        outlet
        {
            type outletInlet;
            faces
            (
                   ( 1 2 5 6 )
            );
         }

        casing
        {
            type wall;
            faces
            (
                   ( 0 1 2 3 )
                   ( 4 5 6 7 )
            );
         }

        cyclic1
        {
            type              wall;
            faces
            (
                   ( 0 1 4 5 )
            );
         }

        cyclic2
        {
            type              wall;
            faces
            (
                   ( 2 3 6 7 )
            );
         }

);

blocks
(
hex ( 0 1 2 3 4 5 6 7 ) boundary 
( 40 40 20 )
simpleGrading
(
   1
   (
       ( 0.3   0.2   0.2 )
       ( 0.4   0.6   1.0 )
       ( 0.3   0.2   5.0 )
   )
   1
)
);

