FoamFile
{
    version     2.0;
    format      ascii;
    class       dictionary;
    object      blockMeshDict;
}




vertices
(
    ( -0.00183861651571581 0.00771178365795852 0.01237523549501764 )
    ( 0.00185505670471455 -0.00700388618358946 0.01237523549501764 )
    ( 0.00185505670471455 -0.00770591806068443 0.01237523549501764 )
    ( -0.00183861651571581 0.00700975178086355 0.01237523549501764 )
    ( -0.00314060632397364 0.00736502918638275 0.00000000000000000 )
    ( 0.00316150528681732 -0.00676257762465350 0.00000000000000000 )
    ( 0.00316150528681732 -0.00735601187919773 0.00000000000000000 )
    ( -0.00314060632397364 0.00677159493183852 0.00000000000000000 )
);

edges
(
arc 6 7 ( -0.00016048467616665 -0.00040538251042279 0.00000000000000000 )
arc 4 5 ( -0.00016048467616665 0.00018805174412144 0.00000000000000000 )
arc 2 3 ( -0.00005058678540123 -0.00042029582071409 0.01237523549501764 )
arc 0 1 ( -0.00005058678540123 0.00028173605638088 0.01237523549501764 )
);

boundary
(
        inlet
        {
            type outletInlet;
            faces
            (
                   ( 0 3 4 7 )
            );
         }

        outlet
        {
            type outletInlet;
            faces
            (
                   ( 1 2 5 6 )
            );
         }

        casing
        {
            type wall;
            faces
            (
                   ( 0 1 2 3 )
                   ( 4 5 6 7 )
            );
         }

        cyclic1
        {
            type              wall;
            faces
            (
                   ( 0 1 4 5 )
            );
         }

        cyclic2
        {
            type              wall;
            faces
            (
                   ( 2 3 6 7 )
            );
         }

);

blocks
(
hex ( 0 1 2 3 4 5 6 7 ) boundary 
( 40 40 20 )
simpleGrading
(
   1
   (
       ( 0.3   0.2   0.2 )
       ( 0.4   0.6   1.0 )
       ( 0.3   0.2   5.0 )
   )
   1
)
);

