FoamFile
{
    version     2.0;
    format      ascii;
    class       dictionary;
    object      blockMeshDict;
}




vertices
(
    ( -0.00871893812647855 0.01648363731097020 0.03580236994901418 )
    ( 0.00870576911046999 0.00982329480457765 0.03580236994901418 )
    ( 0.00870576911046999 -0.01650624359542235 0.03580236994901418 )
    ( -0.00871893812647855 -0.00984590108902980 0.03580236994901418 )
    ( -0.00723143802430816 0.01294542845266235 0.00000000000000000 )
    ( 0.00720821221624069 0.00265196114099594 0.00000000000000000 )
    ( 0.00720821221624069 -0.01296553323191798 0.00000000000000000 )
    ( -0.00723143802430816 -0.00267206592025156 0.00000000000000000 )
);

edges
(
arc 6 7 ( 0.00097073356538751 -0.00704785839604341 0.00000000000000000 )
arc 4 5 ( 0.00097073356538751 0.00856963597687051 0.00000000000000000 )
arc 2 3 ( 0.00072386619116279 -0.01212646789230807 0.03580236994901418 )
arc 0 1 ( 0.00072386619116279 0.01420307050769193 0.03580236994901418 )
);

boundary
(
        inlet
        {
            type outletInlet;
            faces
            (
                   ( 0 3 4 7 )
            );
         }

        outlet
        {
            type outletInlet;
            faces
            (
                   ( 1 2 5 6 )
            );
         }

        casing
        {
            type wall;
            faces
            (
                   ( 0 1 2 3 )
                   ( 4 5 6 7 )
            );
         }

        cyclic1
        {
            type              wall;
            faces
            (
                   ( 0 1 4 5 )
            );
         }

        cyclic2
        {
            type              wall;
            faces
            (
                   ( 2 3 6 7 )
            );
         }

);

blocks
(
hex ( 0 1 2 3 4 5 6 7 ) boundary 
( 70 70 50 )
simpleGrading ( 2 2 2 )
);

