FoamFile
{
   version     2.0;
   format      ascii;
   class       dictionary;
   object      controlDict;
}


application        icoFoam;

startFrom          startTime;

startTime          0.0;

stopAt             endTime;

endTime            0.0;

writeControl       timeStep;

writeInterval      1;

deltaT             0.01;

purgeWrite         0;

writeFormat        ascii;

writePrecision     6.0;

writeCompression   off;

timeFormat         general;

writeCompression   off;

timeFormat         general;

timePrecision      6;

runTimeModifiable  true;


